@<TRIPOS>MOLECULE
lig
 138 144 0 0 0
SMALL
GASTEIGER

@<TRIPOS>ATOM
      1 H          -4.0490    9.8820    8.0985 H       1  UNL11      -0.0900
      2 H          -4.5236   11.1393    3.0464 H       1  UNL11      -0.0900
      3 H          -5.7265    0.5957   11.8248 H       1  UNL11      -0.0900
      4 H          -3.2264    9.6884    9.5376 H       1  UNL11      -0.0900
      5 H           1.8250    9.0674   13.2749 H       1  UNL11      -0.0900
      6 H          -7.7888   11.0654   13.2740 H       1  UNL11      -0.0900
      7 H          -7.5295    9.4309   13.0585 H       1  UNL11      -0.0900
      8 H          -6.2461   10.4956   12.9899 H       1  UNL11      -0.0900
      9 H           0.2285    9.2782   12.8365 H       1  UNL11      -0.0900
     10 H           1.4450    9.6085   11.7426 H       1  UNL11      -0.0900
     11 H          -5.6965   11.1467    4.2337 H       1  UNL11      -0.0900
     12 N           1.1540    8.9960   12.5073 N.3     1  UNL11       0.3798
     13 N          -6.2995    1.3891   11.5306 N.3     1  UNL11       0.3798
     14 H          -7.2267    1.0570   11.2574 H       1  UNL11      -0.0900
     15 N          -7.2364   10.3672   12.7722 N.3     1  UNL11       0.3798
     16 H          -3.7076    3.8236    8.4173 H       1  UNL11      -0.0900
     17 N          -4.9930   11.7104    3.7522 N.3     1  UNL11       0.3798
     18 H          -5.4461   12.5069    3.2996 H       1  UNL11      -0.0900
     19 H          -2.5693    9.1103    8.1166 H       1  UNL11      -0.0900
     20 N          -3.7053    3.6547    9.4253 N.3     1  UNL11       0.3798
     21 N          -3.1252    9.8588    8.5350 N.3     1  UNL11       0.3798
     22 H          -2.7757    3.3462    9.7169 H       1  UNL11      -0.0900
     23 H          -4.3908    2.9311    9.6510 H       1  UNL11      -0.0900
     24 H          -5.8560    1.8533   10.7354 H       1  UNL11      -0.0900
     25 O          -1.5601    5.7334   11.1335 O.3     1  UNL11      -0.3403
     26 O          -0.2805    9.2367    7.7619 O.3     1  UNL11      -0.3403
     27 O          -5.9870    6.3967   12.6023 O.3     1  UNL11      -0.3403
     28 O          -2.1957   13.9837    6.3560 O.3     1  UNL11      -0.3403
     29 O          -6.8033    5.4932   10.2719 O.3     1  UNL11      -0.3403
     30 O          -5.6789   11.3147    8.8548 O.3     1  UNL11      -0.3403
     31 O          -2.8447    4.1481   12.1400 O.3     1  UNL11      -0.3447
     32 O           0.5299    8.1684    9.7157 O.3     1  UNL11      -0.3447
     33 O          -6.8551    4.4623   13.5872 O.3     1  UNL11      -0.3447
     34 O          -1.0847   12.9183    8.4584 O.3     1  UNL11      -0.3447
     35 O          -7.2554    8.1521   10.6517 O.3     1  UNL11      -0.3447
     36 O          -5.5757   12.2035    6.5623 O.3     1  UNL11      -0.3447
     37 O           0.8696    5.4634    8.4568 O.3     1  UNL11      -0.3864
     38 O          -4.2212    6.9798   14.7347 O.3     1  UNL11      -0.3864
     39 O           1.7134   12.1963    7.3982 O.3     1  UNL11      -0.3864
     40 O          -9.4346    5.9861   10.4163 O.3     1  UNL11      -0.3864
     41 O          -3.3807   15.1292    8.7227 O.3     1  UNL11      -0.3864
     42 O          -5.7861    9.0538    6.8261 O.3     1  UNL11      -0.3864
     43 O          -1.4857    5.8356   14.7209 O.3     1  UNL11      -0.3841
     44 O          -2.5139    6.8894    8.4004 O.3     1  UNL11      -0.3841
     45 O          -8.8570    7.4755   12.5957 O.3     1  UNL11      -0.3841
     46 O           0.4501   12.9483    5.0136 O.3     1  UNL11      -0.3841
     47 O          -5.9862    6.4122    7.7221 O.3     1  UNL11      -0.3841
     48 O          -6.6501   14.8385    8.2347 O.3     1  UNL11      -0.3841
     49 C          -0.2819    5.9286   10.5788 C.3     1  UNL11       0.1145
     50 C           0.0635   10.6158    8.1930 C.3     1  UNL11       0.1145
     51 C          -4.5545    5.9989   12.5435 C.3     1  UNL11       0.1145
     52 C          -3.5844   13.6992    6.7802 C.3     1  UNL11       0.1145
     53 C          -7.6229    4.4863   11.0930 C.3     1  UNL11       0.1145
     54 C          -6.4977   10.0434    8.9797 C.3     1  UNL11       0.1145
     55 C          -0.4299    5.7146    9.0333 C.3     1  UNL11       0.1143
     56 C          -3.7895    5.9299   13.8863 C.3     1  UNL11       0.1143
     57 C           0.6401   11.3655    6.9099 C.3     1  UNL11       0.1143
     58 C          -8.8894    5.2527   11.5149 C.3     1  UNL11       0.1143
     59 C          -4.3033   14.6763    7.7313 C.3     1  UNL11       0.1143
     60 C          -5.9604    8.7685    8.2103 C.3     1  UNL11       0.1143
     61 C          -1.7782    5.0729   12.4053 C.3     1  UNL11       0.1882
     62 C          -0.5875    8.3398    8.8418 C.3     1  UNL11       0.1882
     63 C          -7.0822    5.8680   13.4105 C.3     1  UNL11       0.1882
     64 C          -1.0163   13.3220    7.0028 C.3     1  UNL11       0.1882
     65 C          -6.6264    7.0028    9.9931 C.3     1  UNL11       0.1882
     66 C          -5.9884   12.4764    7.9429 C.3     1  UNL11       0.1882
     67 C          -2.2565    6.0482   13.5459 C.3     1  UNL11       0.1341
     68 C          -8.5491    6.1004   12.8069 C.3     1  UNL11       0.1341
     69 C          -5.5483   13.9466    8.4211 C.3     1  UNL11       0.1341
     70 C          -0.3185   12.2827    6.0385 C.3     1  UNL11       0.1341
     71 C          -6.6690    7.3929    8.4790 C.3     1  UNL11       0.1341
     72 C          -1.0715    6.9298    8.2947 C.3     1  UNL11       0.1341
     73 C           0.1135    7.4261   10.8761 C.3     1  UNL11       0.0750
     74 C          -4.0807    4.7580   11.6729 C.3     1  UNL11       0.0750
     75 C          -7.2559    3.6495   12.4676 C.3     1  UNL11       0.0750
     76 C          -4.6453   13.0683    5.8228 C.3     1  UNL11       0.0750
     77 C          -6.6501    9.5122   10.4731 C.3     1  UNL11       0.0750
     78 C          -1.0888   11.4979    8.8098 C.3     1  UNL11       0.0750
     79 C           1.1016    7.6030   12.0284 C.3     1  UNL11      -0.0666
     80 C          -2.4822   11.0870    8.3327 C.3     1  UNL11      -0.0666
     81 C          -4.0528    4.8948   10.1300 C.3     1  UNL11      -0.0666
     82 C          -6.4270    2.3324   12.6347 C.3     1  UNL11      -0.0666
     83 C          -7.4443   10.5246   11.3276 C.3     1  UNL11      -0.0666
     84 C          -4.0078   12.1954    4.7224 C.3     1  UNL11      -0.0666
     85 H           0.4310    5.1733   10.9572 H       1  UNL11       0.0649
     86 H           0.8664   10.5409    8.9471 H       1  UNL11       0.0649
     87 H          -4.1388    6.8872   12.0626 H       1  UNL11       0.0649
     88 H          -3.4375   12.9812    7.4689 H       1  UNL11       0.0649
     89 H          -7.8771    3.6999   10.3721 H       1  UNL11       0.0649
     90 H          -7.4962   10.2895    8.6104 H       1  UNL11       0.0649
     91 H          -1.0088    4.8146    8.8205 H       1  UNL11       0.0648
     92 H          -3.9978    4.9629   14.3839 H       1  UNL11       0.0648
     93 H           1.0995   10.6043    6.2576 H       1  UNL11       0.0648
     94 H          -9.6697    4.5162   11.7467 H       1  UNL11       0.0648
     95 H          -4.6079   15.5706    7.1738 H       1  UNL11       0.0648
     96 H          -4.9764    8.5178    8.5509 H       1  UNL11       0.0648
     97 H          -0.8848    4.4874   12.7033 H       1  UNL11       0.0937
     98 H          -1.3837    8.7960    9.4669 H       1  UNL11       0.0937
     99 H          -7.0368    6.3675   14.3849 H       1  UNL11       0.0937
    100 H          -0.3081   14.1497    7.0454 H       1  UNL11       0.0937
    101 H          -5.5923    7.1482   10.2967 H       1  UNL11       0.0937
    102 H          -7.0780   12.5046    7.9386 H       1  UNL11       0.0937
    103 H          -2.0740    7.0665   13.1937 H       1  UNL11       0.0671
    104 H          -9.2624    5.7822   13.5802 H       1  UNL11       0.0671
    105 H          -5.3974   13.9157    9.5060 H       1  UNL11       0.0671
    106 H          -7.7020    7.4170    8.1546 H       1  UNL11       0.0671
    107 H          -1.0518   11.6603    5.5102 H       1  UNL11       0.0671
    108 H          -0.8360    6.8494    7.2215 H       1  UNL11       0.0671
    109 H          -0.7763    7.9303   11.2699 H       1  UNL11       0.0604
    110 H          -8.1930    3.2125   12.8272 H       1  UNL11       0.0604
    111 H          -5.2000   13.8620    5.3114 H       1  UNL11       0.0604
    112 H          -4.7817    3.9953   11.8460 H       1  UNL11       0.0604
    113 H          -5.6358    9.4992   10.8785 H       1  UNL11       0.0604
    114 H          -1.0738   11.4118    9.9132 H       1  UNL11       0.0604
    115 H           0.8212    6.9461   12.8517 H       1  UNL11       0.0075
    116 H           2.0862    7.2859   11.6847 H       1  UNL11       0.0075
    117 H          -3.1843   11.8997    8.5188 H       1  UNL11       0.0075
    118 H          -2.3973   11.1502    7.2478 H       1  UNL11       0.0075
    119 H          -6.7611    1.8037   13.5275 H       1  UNL11       0.0075
    120 H          -5.4008    2.6459   12.8263 H       1  UNL11       0.0075
    121 H          -8.5070   10.4360   11.1017 H       1  UNL11       0.0075
    122 H          -7.1038   11.5292   11.0767 H       1  UNL11       0.0075
    123 H          -3.5006   11.3463    5.1806 H       1  UNL11       0.0075
    124 H          -3.2830   12.7972    4.1742 H       1  UNL11       0.0075
    125 H          -3.3533    5.6815    9.8475 H       1  UNL11       0.0075
    126 H          -5.0400    5.2294    9.8112 H       1  UNL11       0.0075
    127 H           1.2571    4.6599    8.8625 H       1  UNL11       0.2100
    128 H          -3.7352    6.9338   15.5844 H       1  UNL11       0.2100
    129 H           2.3957   11.6338    7.8205 H       1  UNL11       0.2100
    130 H         -10.2381    6.4643   10.7094 H       1  UNL11       0.2100
    131 H          -3.8332   15.7509    9.3302 H       1  UNL11       0.2100
    132 H          -6.6451    9.3204    6.4369 H       1  UNL11       0.2100
    133 H          -1.6711    4.9411   15.0758 H       1  UNL11       0.2101
    134 H          -2.8480    6.0613    7.9967 H       1  UNL11       0.2101
    135 H          -9.8117    7.5695   12.3952 H       1  UNL11       0.2101
    136 H          -0.1428   13.5142    4.4763 H       1  UNL11       0.2101
    137 H          -6.4044    5.5379    7.8671 H       1  UNL11       0.2101
    138 H          -6.4514   15.6971    8.6633 H       1  UNL11       0.2101
@<TRIPOS>BOND
     1     5    12    1
     2     9    12    1
     3    10    12    1
     4    12    79    1
     5     3    13    1
     6    13    14    1
     7    13    24    1
     8    13    82    1
     9     6    15    1
    10     7    15    1
    11     8    15    1
    12    15    83    1
    13     2    17    1
    14    11    17    1
    15    17    18    1
    16    17    84    1
    17    16    20    1
    18    20    22    1
    19    20    23    1
    20    20    81    1
    21     1    21    1
    22     4    21    1
    23    19    21    1
    24    21    80    1
    25    49    25    1
    26    61    25    1
    27    50    26    1
    28    62    26    1
    29    51    27    1
    30    63    27    1
    31    52    28    1
    32    64    28    1
    33    53    29    1
    34    65    29    1
    35    54    30    1
    36    30    66    1
    37    31    61    1
    38    31    74    1
    39    32    62    1
    40    32    73    1
    41    33    63    1
    42    33    75    1
    43    34    64    1
    44    34    78    1
    45    35    65    1
    46    35    77    1
    47    36    66    1
    48    36    76    1
    49    37   127    1
    50    38   128    1
    51    39   129    1
    52    40   130    1
    53    41   131    1
    54    42   132    1
    55    43   133    1
    56    44   134    1
    57    45   135    1
    58    46   136    1
    59    47   137    1
    60    48   138    1
    61    49    55    1
    62    49    73    1
    63    49    85    1
    64    50    57    1
    65    50    78    1
    66    50    86    1
    67    51    56    1
    68    51    74    1
    69    51    87    1
    70    52    59    1
    71    52    76    1
    72    52    88    1
    73    53    58    1
    74    53    75    1
    75    53    89    1
    76    54    60    1
    77    54    77    1
    78    54    90    1
    79    55    37    1
    80    55    72    1
    81    55    91    1
    82    56    38    1
    83    56    67    1
    84    56    92    1
    85    57    39    1
    86    57    70    1
    87    57    93    1
    88    58    40    1
    89    58    68    1
    90    58    94    1
    91    59    41    1
    92    59    69    1
    93    59    95    1
    94    60    42    1
    95    60    71    1
    96    60    96    1
    97    61    67    1
    98    61    97    1
    99    62    72    1
   100    62    98    1
   101    63    68    1
   102    63    99    1
   103    64    70    1
   104    64   100    1
   105    65    71    1
   106    65   101    1
   107    66    69    1
   108    66   102    1
   109    67    43    1
   110    67   103    1
   111    68    45    1
   112    68   104    1
   113    48    69    1
   114    69   105    1
   115    70    46    1
   116    70   107    1
   117    71    47    1
   118    71   106    1
   119    72    44    1
   120    72   108    1
   121    73    79    1
   122    73   109    1
   123    74    81    1
   124    74   112    1
   125    75    82    1
   126    75   110    1
   127    76    84    1
   128    76   111    1
   129    77    83    1
   130    77   113    1
   131    78    80    1
   132    78   114    1
   133    79   115    1
   134    79   116    1
   135    80   117    1
   136    80   118    1
   137    81   125    1
   138    81   126    1
   139    82   119    1
   140    82   120    1
   141    83   121    1
   142    83   122    1
   143    84   123    1
   144    84   124    1
