@<TRIPOS>MOLECULE
*****
 138 144 0 0 0
SMALL
USER_CHARGES

@<TRIPOS>ATOM
      1 H17         0.8344    0.3177   -0.9372 H       1  UNK01       0.1995
      2 H18         5.2787    6.2365    0.8122 H       1  UNK01       0.1995
      3 H04        16.3150   -0.7736    0.7186 H       1  UNK01       0.1995
      4 H10         0.8409    0.3456    0.7683 H       1  UNK01       0.1995
      5 H08         5.4983   -7.8640    0.4336 H       1  UNK01       0.1995
      6 H02        11.1941    8.2210   -0.1923 H       1  UNK01       0.1995
      7 H14        12.1582    7.1175    0.6681 H       1  UNK01       0.1995
      8 H01        11.9752    6.9635   -1.0201 H       1  UNK01       0.1995
      9 H07         4.9472   -6.7190   -0.6828 H       1  UNK01       0.1995
     10 H16         4.4881   -6.5997    0.9549 H       1  UNK01       0.1995
     11 H11         5.3211    6.1361   -0.8922 H       1  UNK01       0.1995
     12 N04         5.2655   -6.8517    0.3049 N.4     1  UNK01       0.2204
     13 N02        16.4720    0.1393    0.2331 N.4     1  UNK01       0.2204
     14 H03        17.3395    0.5772    0.6184 H       1  UNK01       0.1995
     15 N01        11.4896    7.2208   -0.1291 N.4     1  UNK01       0.2204
     16 H15        11.9740   -6.1830   -0.7242 H       1  UNK01       0.1995
     17 N06         4.7661    5.9028   -0.0361 N.4     1  UNK01       0.2204
     18 H12         3.8420    6.3893   -0.0879 H       1  UNK01       0.1995
     19 H09        -0.1231   -0.7789   -0.0581 H       1  UNK01       0.1995
     20 N03        12.3523   -5.9265    0.2184 N.4     1  UNK01       0.2204
     21 N05         0.7914   -0.2728   -0.0752 N.4     1  UNK01       0.2204
     22 H05        13.2478   -6.4421    0.3726 H       1  UNK01       0.1995
     23 H06        11.6620   -6.2100    0.9508 H       1  UNK01       0.1995
     24 H13        16.6073   -0.0276   -0.7913 H       1  UNK01       0.1995
     25 O           8.5916   -3.9646   -0.8345 O.3     1  UNK01      -0.3400
     26 O           4.2930   -2.1492   -1.0563 O.3     1  UNK01      -0.3400
     27 O          12.4104   -2.3015   -0.6836 O.3     1  UNK01      -0.3400
     28 O           4.8951    2.2533   -0.9095 O.3     1  UNK01      -0.3400
     29 O          12.9508    2.3530    1.1241 O.3     1  UNK01      -0.3400
     30 O           8.6029    3.9387   -0.8923 O.3     1  UNK01      -0.3400
     31 O          10.2615   -3.9241    0.9269 O.3     1  UNK01      -0.3375
     32 O           5.2219   -4.0054   -0.1141 O.3     1  UNK01      -0.3375
     33 O          13.7803   -0.8007   -0.0159 O.3     1  UNK01      -0.3375
     34 O           3.5056    0.3813   -0.9681 O.3     1  UNK01      -0.3375
     35 O          11.8129    4.6139    0.8989 O.3     1  UNK01      -0.3375
     36 O           6.8876    4.0413    0.8569 O.3     1  UNK01      -0.3375
     37 O           7.0329   -2.7464    1.2805 O.3     1  UNK01      -0.3864
     38 O          10.7100   -1.7802   -2.4731 O.3     1  UNK01      -0.3864
     39 O           6.8923   -0.6393    1.1745 O.3     1  UNK01      -0.3864
     40 O          10.0425    0.4074    0.8620 O.3     1  UNK01      -0.3864
     41 O           7.0976    1.3544   -2.2302 O.3     1  UNK01      -0.3864
     42 O           9.7179    1.9588   -1.3558 O.3     1  UNK01      -0.3864
     43 O           9.1862   -1.1606   -0.8402 O.3     1  UNK01      -0.3841
     44 O           7.2131   -3.2795   -2.6478 O.3     1  UNK01      -0.3841
     45 O          11.9150   -0.5668    1.3789 O.3     1  UNK01      -0.3841
     46 O           5.2795    0.6775    1.3738 O.3     1  UNK01      -0.3841
     47 O          10.5993    1.8499    2.5374 O.3     1  UNK01      -0.3841
     48 O           7.8484    1.4033    1.0046 O.3     1  UNK01      -0.3841
     49 C           7.7330   -3.5000    0.0000 C.3     1  UNK01       0.1212
     50 C           4.5159   -1.3867    0.1096 C.3     1  UNK01       0.1212
     51 C          11.1970   -2.5000    0.0000 C.3     1  UNK01       0.1212
     52 C           6.0010    2.5000    0.0000 C.3     1  UNK01       0.1212
     53 C          12.7616    1.3048    0.1132 C.3     1  UNK01       0.1212
     54 C           9.4650    3.5000    0.0000 C.3     1  UNK01       0.1212
     55 C           7.7330   -2.5000    0.0000 C.3     1  UNK01       0.1145
     56 C          10.4315   -2.6548   -1.3556 C.3     1  UNK01       0.1145
     57 C           6.0010   -0.5000    0.0000 C.3     1  UNK01       0.1145
     58 C          11.1970    0.5000    0.0000 C.3     1  UNK01       0.1145
     59 C           6.8933    2.4131   -1.3010 C.3     1  UNK01       0.1145
     60 C           9.4650    2.5000    0.0000 C.3     1  UNK01       0.1145
     61 C           9.4650   -3.5000    0.0000 C.3     1  UNK01       0.1886
     62 C           5.2322   -3.1466   -1.2322 C.3     1  UNK01       0.1886
     63 C          12.5702   -1.0264   -0.7336 C.3     1  UNK01       0.1886
     64 C           4.5084    1.1569   -0.3608 C.3     1  UNK01       0.1886
     65 C          11.8938    3.2398    0.8956 C.3     1  UNK01       0.1886
     66 C           7.7330    3.5000    0.0000 C.3     1  UNK01       0.1886
     67 C           9.4650   -2.5000    0.0000 C.3     1  UNK01       0.1341
     68 C          11.1970   -0.5000    0.0000 C.3     1  UNK01       0.1341
     69 C           7.7330    2.5000    0.0000 C.3     1  UNK01       0.1341
     70 C           6.0010    0.5000    0.0000 C.3     1  UNK01       0.1341
     71 C          10.4872    2.7297    1.4321 C.3     1  UNK01       0.1341
     72 C           6.6682   -2.5187   -1.5567 C.3     1  UNK01       0.1341
     73 C           6.4407   -4.6478   -0.1813 C.3     1  UNK01       0.1297
     74 C          11.1970   -3.5000    0.0000 C.3     1  UNK01       0.1297
     75 C          14.0628    0.5283   -0.2330 C.3     1  UNK01       0.1297
     76 C           6.0010    3.5000    0.0000 C.3     1  UNK01       0.1297
     77 C          10.6953    4.8307   -0.0287 C.3     1  UNK01       0.1297
     78 C           3.2488   -0.5307    0.0842 C.3     1  UNK01       0.1297
     79 C           6.4437   -6.0315    0.6140 C.3     1  UNK01      -0.0058
     80 C           1.8903   -1.2462   -0.0785 C.3     1  UNK01      -0.0058
     81 C          12.5909   -4.4545    0.2794 C.3     1  UNK01      -0.0058
     82 C          15.3322    1.0258    0.4804 C.3     1  UNK01      -0.0058
     83 C          10.3107    6.3720    0.0832 C.3     1  UNK01      -0.0058
     84 C           4.5578    4.4324    0.0466 C.3     1  UNK01      -0.0058
     85 H           7.7330   -4.3500    0.0000 H       1  UNK01       0.0652
     86 H           4.4309   -2.0252    1.0333 H       1  UNK01       0.0652
     87 H          11.6756   -2.5208    1.0708 H       1  UNK01       0.0652
     88 H           5.4270    2.6647    1.0521 H       1  UNK01       0.0652
     89 H          12.8381    1.7651   -0.9266 H       1  UNK01       0.0652
     90 H           9.4650    4.3500    0.0000 H       1  UNK01       0.0652
     91 H           7.3557   -2.0682   -0.8261 H       1  UNK01       0.0648
     92 H          10.4562   -3.6374   -2.0442 H       1  UNK01       0.0648
     93 H           6.0010   -1.1200    0.0000 H       1  UNK01       0.0648
     94 H          11.1970    1.1200    0.0000 H       1  UNK01       0.0648
     95 H           6.8044    3.2678   -2.0938 H       1  UNK01       0.0648
     96 H          10.3436    2.6573   -0.6765 H       1  UNK01       0.0648
     97 H           9.4650   -4.3500    0.0000 H       1  UNK01       0.0938
     98 H           4.8592   -3.7052   -2.1198 H       1  UNK01       0.0938
     99 H          12.7790   -0.8218   -1.8358 H       1  UNK01       0.0938
    100 H           3.7912    1.7199    0.3612 H       1  UNK01       0.0938
    101 H          12.1825    3.3509   -0.1815 H       1  UNK01       0.0938
    102 H           7.7330    4.3500    0.0000 H       1  UNK01       0.0938
    103 H           9.4764   -1.9622    1.1378 H       1  UNK01       0.0671
    104 H          11.0609   -0.3106   -1.1052 H       1  UNK01       0.0671
    105 H           7.7381    2.3282    1.2958 H       1  UNK01       0.0671
    106 H          10.1009    3.5631    2.1218 H       1  UNK01       0.0671
    107 H           5.7070    0.3295   -1.0975 H       1  UNK01       0.0671
    108 H           6.2446   -1.5876   -2.1867 H       1  UNK01       0.0671
    109 H           6.4574   -5.1297   -1.2343 H       1  UNK01       0.0678
    110 H          14.3735    0.5826   -1.3197 H       1  UNK01       0.0678
    111 H           6.0010    4.1200    0.0000 H       1  UNK01       0.0678
    112 H          11.1970   -4.1200    0.0000 H       1  UNK01       0.0678
    113 H          11.1179    4.8303   -1.0873 H       1  UNK01       0.0678
    114 H           3.0999   -0.0609    1.0945 H       1  UNK01       0.0678
    115 H           7.3538   -6.5853    0.2706 H       1  UNK01       0.0840
    116 H           6.5425   -5.8975    1.7102 H       1  UNK01       0.0840
    117 H           1.7568   -1.9414    0.7820 H       1  UNK01       0.0840
    118 H           1.8459   -1.8391   -1.0154 H       1  UNK01       0.0840
    119 H          15.5664    2.0405    0.0772 H       1  UNK01       0.0840
    120 H          15.1723    1.1139    1.5744 H       1  UNK01       0.0840
    121 H           9.5555    6.6056   -0.7011 H       1  UNK01       0.0840
    122 H           9.8659    6.5856    1.0776 H       1  UNK01       0.0840
    123 H           3.9797    4.2382    0.9842 H       1  UNK01       0.0840
    124 H           3.8508    4.1942   -0.7869 H       1  UNK01       0.0840
    125 H          13.3998   -4.2716   -0.4742 H       1  UNK01       0.0840
    126 H          13.0440   -4.2253    1.2738 H       1  UNK01       0.0840
    127 H           7.6351   -2.6425    2.0945 H       1  UNK01       0.2100
    128 H          10.0543   -1.9566   -3.1996 H       1  UNK01       0.2100
    129 H           6.4814   -0.8659    2.0777 H       1  UNK01       0.2100
    130 H           9.7982    0.0020    1.7567 H       1  UNK01       0.2100
    131 H           7.5677    0.5896   -1.8579 H       1  UNK01       0.2100
    132 H           9.4125    1.0384   -1.4819 H       1  UNK01       0.2100
    133 H           8.7431   -1.1346   -1.7424 H       1  UNK01       0.2101
    134 H           7.6613   -2.6501   -3.2701 H       1  UNK01       0.2101
    135 H          11.4458   -0.9365    2.1827 H       1  UNK01       0.2101
    136 H           5.8191    1.0710    2.1273 H       1  UNK01       0.2101
    137 H          11.5237    1.8475    2.8938 H       1  UNK01       0.2101
    138 H           8.1523    0.7122    0.3332 H       1  UNK01       0.2101
@<TRIPOS>BOND
     1     5    12    1
     2     9    12    1
     3    10    12    1
     4    12    79    1
     5     3    13    1
     6    13    14    1
     7    13    24    1
     8    13    82    1
     9     6    15    1
    10     7    15    1
    11     8    15    1
    12    15    83    1
    13     2    17    1
    14    11    17    1
    15    17    18    1
    16    17    84    1
    17    16    20    1
    18    20    22    1
    19    20    23    1
    20    20    81    1
    21     1    21    1
    22     4    21    1
    23    19    21    1
    24    21    80    1
    25    25    49    1
    26    25    61    1
    27    26    50    1
    28    26    62    1
    29    27    51    1
    30    27    63    1
    31    28    52    1
    32    28    64    1
    33    29    53    1
    34    29    65    1
    35    30    54    1
    36    30    66    1
    37    31    61    1
    38    31    74    1
    39    32    62    1
    40    32    73    1
    41    33    63    1
    42    33    75    1
    43    34    64    1
    44    34    78    1
    45    35    65    1
    46    35    77    1
    47    36    66    1
    48    36    76    1
    49    37   127    1
    50    38   128    1
    51    39   129    1
    52    40   130    1
    53    41   131    1
    54    42   132    1
    55    43   133    1
    56    44   134    1
    57    45   135    1
    58    46   136    1
    59    47   137    1
    60    48   138    1
    61    49    55    1
    62    49    73    1
    63    49    85    1
    64    50    57    1
    65    50    78    1
    66    50    86    1
    67    51    56    1
    68    51    74    1
    69    51    87    1
    70    52    59    1
    71    52    76    1
    72    52    88    1
    73    53    58    1
    74    53    75    1
    75    53    89    1
    76    54    60    1
    77    54    77    1
    78    54    90    1
    79    37    55    1
    80    55    72    1
    81    55    91    1
    82    38    56    1
    83    56    67    1
    84    56    92    1
    85    39    57    1
    86    57    70    1
    87    57    93    1
    88    40    58    1
    89    58    68    1
    90    58    94    1
    91    41    59    1
    92    59    69    1
    93    59    95    1
    94    42    60    1
    95    60    71    1
    96    60    96    1
    97    61    67    1
    98    61    97    1
    99    62    72    1
   100    62    98    1
   101    63    68    1
   102    63    99    1
   103    64    70    1
   104    64   100    1
   105    65    71    1
   106    65   101    1
   107    66    69    1
   108    66   102    1
   109    43    67    1
   110    67   103    1
   111    45    68    1
   112    68   104    1
   113    48    69    1
   114    69   105    1
   115    46    70    1
   116    70   107    1
   117    47    71    1
   118    71   106    1
   119    44    72    1
   120    72   108    1
   121    73    79    1
   122    73   109    1
   123    74    81    1
   124    74   112    1
   125    75    82    1
   126    75   110    1
   127    76    84    1
   128    76   111    1
   129    77    83    1
   130    77   113    1
   131    78    80    1
   132    78   114    1
   133    79   115    1
   134    79   116    1
   135    80   117    1
   136    80   118    1
   137    81   125    1
   138    81   126    1
   139    82   119    1
   140    82   120    1
   141    83   121    1
   142    83   122    1
   143    84   123    1
   144    84   124    1
